# Packages
 &PACKAGES
 useShelfIce = .TRUE.,
 useOBCS     = .TRUE.,
 &
