# ===================================
# | Parameters for SHELFICE package |
# ===================================
 &SHELFICE_PARM01
 SHELFICEconserve = .TRUE.,
 SHELFICEboundaryLayer = .TRUE.,
 SHELFICEtopoFile='icetopo.bin',
 SHELFICEwriteState = .TRUE.,
 &
